ckt7_Mon_rfi_03_der000.csv
fault_bus,fault_type,fault_R_ohm,Va_mag_pu,Va_ang_deg,Vb_mag_pu,Vb_ang_deg,Vc_mag_pu,Vc_ang_deg,Ia_mag_A,Ia_ang_deg,Ib_mag_A,Ib_ang_deg,Ic_mag_A,Ic_ang_deg
318412,SLG,0,0.130387,-112.3218,1.046374,-150.1423,1.045897,89.5348,1.1186,-77.3833,2.2245,-160.8519,2.601,44.4416
318412,SLG,10,1.047004,-30.3569,1.047693,-150.2944,1.047172,89.7153,2.5304,-58.0794,2.5299,-178.0835,2.53,61.927
318412,SLG,20,1.04701,-30.3342,1.047694,-150.2944,1.047171,89.7153,2.5303,-58.0718,2.5299,-178.0758,2.53,61.9345
318412,SLG,30,1.047012,-30.3266,1.047695,-150.2944,1.047171,89.7153,2.5303,-58.0693,2.5299,-178.0732,2.53,61.937
318412,SLG,40,1.047013,-30.3228,1.047695,-150.2944,1.04717,89.7153,2.5303,-58.0681,2.5299,-178.0719,2.53,61.9383
318412,LL,0,0.130314,-112.2529,0.130273,127.7502,1.044199,89.6831,1.41,-118.9579,0.6747,-126.5784,2.0807,58.5775
318412,LL,10,1.047006,-30.357,1.04768,-150.3399,1.047169,89.7152,2.5304,-58.0945,2.5299,-178.0985,2.53,61.9115
318412,LL,20,1.047011,-30.3342,1.047688,-150.3171,1.047169,89.7153,2.5303,-58.0794,2.5299,-178.0833,2.53,61.9268
318412,LL,30,1.047013,-30.3266,1.047691,-150.3096,1.047169,89.7153,2.5303,-58.0744,2.5299,-178.0782,2.53,61.9319
318412,LL,40,1.047014,-30.3228,1.047692,-150.3058,1.04717,89.7153,2.5303,-58.0719,2.5299,-178.0757,2.53,61.9344
318412,3LG,0,0.130305,-112.2646,0.130391,127.7513,0.130326,7.7627,0.3353,-139.9644,0.3355,100.0286,0.3354,-19.9917
318412,3LG,10,1.047002,-30.357,1.047682,-150.34,1.047156,89.6697,2.5304,-58.1099,2.5299,-178.1136,2.53,61.8965
318412,3LG,20,1.047009,-30.3342,1.047689,-150.3172,1.047163,89.6925,2.5303,-58.0871,2.5299,-178.0908,2.53,61.9193
318412,3LG,30,1.047012,-30.3266,1.047691,-150.3096,1.047165,89.7001,2.5303,-58.0795,2.5299,-178.0832,2.53,61.9269
318412,3LG,40,1.047013,-30.3228,1.047693,-150.3058,1.047166,89.7039,2.5303,-58.0757,2.5299,-178.0794,2.53,61.9307
243937,SLG,0,0.01453,-52.3651,1.332145,175.0367,1.731568,103.7374,2.4718,-68.716,2.4937,178.749,2.7575,54.6381
243937,SLG,10,1.040566,-30.4591,1.049944,-150.5458,1.050056,89.947,2.5314,-58.1189,2.531,-178.124,2.531,61.8878
243937,SLG,20,1.043782,-30.3855,1.048824,-150.4205,1.048612,89.8318,2.5309,-58.0917,2.5304,-178.0961,2.5305,61.9149
243937,SLG,30,1.044858,-30.3609,1.048449,-150.3786,1.048131,89.7931,2.5307,-58.0826,2.5303,-178.0868,2.5303,61.9239
243937,SLG,40,1.045397,-30.3485,1.048261,-150.3576,1.047891,89.7737,2.5306,-58.0781,2.5302,-178.0821,2.5302,61.9284
243937,LL,0,0.031424,-69.3869,0.024941,120.1163,1.487415,85.0497,1.7907,-121.3344,1.6668,-123.9935,3.4566,57.3837
243937,LL,10,1.043456,-30.2275,1.043505,-150.6937,1.052261,89.6959,2.5325,-58.1735,2.5321,-178.1789,2.5321,61.8317
243937,LL,20,1.045225,-30.269,1.045593,-150.4946,1.04973,89.7057,2.5314,-58.119,2.531,-178.1236,2.531,61.8868
243937,LL,30,1.04582,-30.2831,1.046292,-150.428,1.048879,89.7089,2.531,-58.1008,2.5306,-178.1051,2.5307,61.9052
243937,LL,40,1.046118,-30.2901,1.046642,-150.3947,1.048453,89.7106,2.5309,-58.0917,2.5305,-178.0958,2.5305,61.9144
243937,3LG,0,0.032427,-95.1929,0.032434,144.8235,0.032424,24.8187,0.0834,-122.8987,0.0835,117.0935,0.0834,-2.9226
243937,3LG,10,1.045677,-30.4788,1.046351,-150.4617,1.045827,89.5477,2.5335,-58.23,2.5331,-178.2337,2.5332,61.7765
243937,3LG,20,1.046347,-30.3951,1.047024,-150.3781,1.046499,89.6315,2.5319,-58.1472,2.5315,-178.1509,2.5316,61.8592
243937,3LG,30,1.04657,-30.3672,1.047248,-150.3502,1.046723,89.6594,2.5314,-58.1196,2.531,-178.1233,2.531,61.8868
243937,3LG,40,1.046682,-30.3533,1.04736,-150.3363,1.046835,89.6734,2.5311,-58.1058,2.5307,-178.1095,2.5308,61.9006
157347,SLG,0,0.00549,-81.3679,1.249096,-171.1321,1.410481,103.0378,39527.3199,-81.3671,2.5384,-172.6487,2.8565,54.855
157347,SLG,10,1.034577,-31.1521,1.055582,-150.4911,1.046411,90.1885,747.1076,-31.2406,2.5342,-178.2552,2.5342,61.7614
157347,SLG,20,1.040788,-30.7342,1.051674,-150.3921,1.046747,89.9531,376.9104,-30.9116,2.5321,-178.1623,2.5321,61.8509
157347,SLG,30,1.042862,-30.5939,1.050356,-150.3594,1.046878,89.8741,252.5193,-30.8594,2.5313,-178.131,2.5314,61.8811
157347,SLG,40,1.0439,-30.5235,1.049694,-150.3431,1.046948,89.8345,190.1377,-30.8767,2.531,-178.1153,2.531,61.8963
157347,LL,0,0.008822,-74.5573,0.007815,131.2504,1.365134,87.2408,63512.2853,-74.5583,56261.0225,131.2519,3.0903,59.5355
157347,LL,10,1.03384,-30.6749,1.043072,-151.3282,1.054251,89.9846,746.5667,-30.7656,753.2261,-151.4162,2.5385,61.5731
157347,LL,20,1.040368,-30.4954,1.045427,-150.8141,1.050717,89.8536,376.7543,-30.6749,378.5815,-150.9909,2.5342,61.7564
157347,LL,30,1.04257,-30.4346,1.046193,-150.6415,1.049536,89.8083,252.4461,-30.7023,253.3192,-150.9065,2.5328,61.818
157347,LL,40,1.043677,-30.404,1.046573,-150.5549,1.048945,89.7854,190.0951,-30.7594,190.6189,-150.9076,2.5321,61.8489
157347,3LG,0,0.009363,-92.452,0.009364,147.5503,0.009363,27.5501,67408.7507,-92.452,67417.0007,147.5503,67410.7708,27.5501
157347,3LG,10,1.04161,-30.8749,1.042283,-150.8588,1.041774,89.1512,752.1651,-30.9651,752.6488,-150.949,752.2821,89.0609
157347,3LG,20,1.044319,-30.5939,1.044995,-150.5773,1.044478,89.4325,378.1786,-30.7728,378.4213,-150.7562,378.235,89.2535
157347,3LG,30,1.045219,-30.4999,1.045897,-150.4832,1.045376,89.5266,253.0831,-30.7671,253.2449,-150.7503,253.12,89.2594
157347,3LG,40,1.045669,-30.4528,1.046347,-150.436,1.045825,89.5738,190.4546,-30.8077,190.5759,-150.7909,190.482,89.2187
298162,SLG,0,0.656227,-22.3393,1.037274,-162.2818,1.253122,93.2945,2.7143,-58.8265,2.7338,-178.7325,2.728,60.8666
298162,SLG,10,1.038599,-30.7734,1.052479,-150.5205,1.048407,90.0552,2.5324,-58.1776,2.5319,-178.1843,2.5319,61.8294
298162,SLG,20,1.04282,-30.5462,1.05013,-150.4069,1.047749,89.8871,2.5313,-58.1217,2.5309,-178.1268,2.5309,61.885
298162,SLG,30,1.044222,-30.4687,1.049328,-150.3693,1.047547,89.8302,2.531,-58.1027,2.5305,-178.1074,2.5306,61.9039
298162,SLG,40,1.044921,-30.4297,1.048924,-150.3505,1.047449,89.8017,2.5308,-58.0932,2.5304,-178.0976,2.5304,61.9134
298162,LL,0,0.710892,-26.728,0.60129,-148.3913,1.178236,85.491,2.3589,-69.4478,2.3641,-167.5934,3.094,61.4072
298162,LL,10,1.039928,-30.4303,1.044011,-150.9836,1.053146,89.8246,2.5342,-58.2924,2.5338,-178.2993,2.5338,61.7116
298162,LL,20,1.043418,-30.3734,1.045922,-150.6423,1.050178,89.7735,2.5322,-58.1793,2.5318,-178.1847,2.5318,61.8258
298162,LL,30,1.044605,-30.3533,1.046529,-150.527,1.049179,89.7549,2.5316,-58.1412,2.5312,-178.146,2.5312,61.8643
298162,LL,40,1.045203,-30.343,1.046827,-150.4691,1.048678,89.7453,2.5313,-58.1221,2.5309,-178.1266,2.5309,61.8837
298162,3LG,0,0.662221,-30.2308,0.662217,-150.2319,0.662222,89.7699,2.0593,-57.8627,2.0605,-177.8762,2.0594,62.1021
298162,3LG,10,1.044604,-30.6607,1.045284,-150.6457,1.044783,89.365,2.5361,-58.4114,2.5357,-178.4152,2.5357,61.595
298162,3LG,20,1.045828,-30.4869,1.046508,-150.4709,1.045995,89.5393,2.5332,-58.2388,2.5327,-178.2425,2.5328,61.7677
298162,3LG,30,1.046228,-30.4286,1.046908,-150.4123,1.046391,89.5978,2.5322,-58.1808,2.5318,-178.1845,2.5319,61.8256
298162,3LG,40,1.046427,-30.3994,1.047107,-150.3829,1.046587,89.6271,2.5317,-58.1518,2.5313,-178.1555,2.5314,61.8546
165448,SLG,0,0.686222,-22.7397,1.033221,-161.4169,1.239085,92.9282,2.7013,-58.7217,2.7171,-178.6163,2.7135,61.0412
165448,SLG,10,1.03858,-30.7716,1.052462,-150.521,1.048424,90.0547,2.5324,-58.1773,2.5319,-178.184,2.5319,61.8296
165448,SLG,20,1.042813,-30.5456,1.050125,-150.4071,1.047754,89.8869,2.5313,-58.1216,2.5309,-178.1267,2.5309,61.8851
165448,SLG,30,1.044218,-30.4684,1.049325,-150.3694,1.04755,89.8302,2.531,-58.1027,2.5305,-178.1073,2.5306,61.9039
165448,SLG,40,1.044919,-30.4295,1.048922,-150.3506,1.047451,89.8016,2.5308,-58.0932,2.5304,-178.0976,2.5304,61.9134
165448,LL,0,0.739162,-26.9914,0.630705,-148.2725,1.167095,85.6236,2.4169,-67.5292,2.4204,-169.2911,3.052,61.5395
165448,LL,10,1.039936,-30.4287,1.043971,-150.9826,1.053148,89.8233,2.5342,-58.292,2.5339,-178.2988,2.5338,61.7121
165448,LL,20,1.043419,-30.3728,1.04591,-150.642,1.050179,89.7731,2.5322,-58.1792,2.5318,-178.1845,2.5318,61.826
165448,LL,30,1.044605,-30.353,1.046522,-150.5269,1.04918,89.7547,2.5316,-58.1411,2.5312,-178.1459,2.5312,61.8644
165448,LL,40,1.045203,-30.3428,1.046822,-150.4691,1.048679,89.7452,2.5313,-58.122,2.5309,-178.1266,2.5309,61.8837
165448,3LG,0,0.689978,-30.1839,0.689974,-150.185,0.689979,89.8168,2.1944,-57.8108,2.1957,-177.8245,2.1946,62.1538
165448,3LG,10,1.04459,-30.66,1.045271,-150.6453,1.044772,89.3655,2.5361,-58.4109,2.5357,-178.4146,2.5358,61.5956
165448,3LG,20,1.045823,-30.4867,1.046504,-150.4708,1.045991,89.5395,2.5332,-58.2386,2.5328,-178.2423,2.5328,61.7679
165448,3LG,30,1.046225,-30.4285,1.046906,-150.4122,1.046389,89.5979,2.5322,-58.1807,2.5318,-178.1844,2.5319,61.8257
165448,3LG,40,1.046424,-30.3993,1.047105,-150.3828,1.046586,89.6272,2.5317,-58.1517,2.5313,-178.1554,2.5314,61.8547
165449,SLG,0,0.845598,-25.3286,1.022846,-156.6174,1.161037,91.1254,2.6292,-58.2443,2.632,-178.1614,2.6339,61.7439
165449,SLG,10,1.038393,-30.7532,1.052298,-150.5265,1.048593,90.0496,2.5325,-58.1747,2.532,-178.1813,2.532,61.8323
165449,SLG,20,1.042745,-30.5399,1.050077,-150.4089,1.047809,89.8856,2.5314,-58.1208,2.5309,-178.1259,2.531,61.8859
165449,SLG,30,1.044179,-30.4654,1.049301,-150.3704,1.047579,89.8295,2.531,-58.1022,2.5306,-178.1069,2.5306,61.9044
165449,SLG,40,1.044892,-30.4276,1.048906,-150.3512,1.04747,89.8012,2.5308,-58.0929,2.5304,-178.0973,2.5305,61.9137
165449,LL,0,0.878234,-28.3918,0.798204,-147.9728,1.109113,86.7895,2.7445,-58.9471,2.74,-176.871,2.8278,62.1695
165449,LL,10,1.040026,-30.4127,1.043566,-150.9731,1.053165,89.8103,2.5345,-58.2877,2.5341,-178.2945,2.534,61.7164
165449,LL,20,1.043428,-30.3675,1.045781,-150.6395,1.050194,89.7693,2.5323,-58.1778,2.5319,-178.1831,2.5319,61.8274
165449,LL,30,1.044604,-30.3501,1.046454,-150.5257,1.049191,89.7528,2.5316,-58.1404,2.5312,-178.1452,2.5313,61.8652
165449,LL,40,1.045199,-30.3409,1.046778,-150.4683,1.048687,89.744,2.5313,-58.1215,2.5309,-178.1261,2.5309,61.8843
165449,3LG,0,0.836754,-29.7749,0.836741,-149.7764,0.836756,90.2254,2.9088,-57.3914,2.9106,-177.4062,2.9091,62.5722
165449,3LG,10,1.044454,-30.654,1.045143,-150.6412,1.044664,89.3708,2.5364,-58.4056,2.536,-178.4093,2.5361,61.6009
165449,3LG,20,1.045771,-30.4844,1.046457,-150.4696,1.045955,89.5414,2.5333,-58.2367,2.5329,-178.2405,2.5329,61.7697
165449,3LG,30,1.046194,-30.4271,1.046879,-150.4116,1.046368,89.599,2.5323,-58.1796,2.5319,-178.1834,2.5319,61.8268
165449,3LG,40,1.046403,-30.3983,1.047086,-150.3824,1.046572,89.628,2.5318,-58.151,2.5314,-178.1547,2.5314,61.8555
287274,SLG,0,0.898614,-27.5876,1.034139,-154.8505,1.127436,91.0203,2.6002,-58.2975,2.6009,-178.2688,2.6017,61.7036
287274,SLG,10,1.038353,-30.7361,1.05213,-150.5281,1.048696,90.0423,2.5326,-58.1719,2.5321,-178.1785,2.5321,61.8351
287274,SLG,20,1.04272,-30.5348,1.05003,-150.4096,1.047842,89.8836,2.5314,-58.12,2.5309,-178.125,2.531,61.8868
287274,SLG,30,1.044163,-30.4628,1.049277,-150.3708,1.047597,89.8286,2.531,-58.1018,2.5306,-178.1064,2.5306,61.9048
287274,SLG,40,1.04488,-30.4259,1.048891,-150.3515,1.047482,89.8006,2.5309,-58.0926,2.5304,-178.097,2.5305,61.914
287274,LL,0,0.936927,-29.9843,0.861609,-150.2294,1.092907,87.618,2.7643,-58.4581,2.752,-179.0264,2.7344,61.4806
287274,LL,10,1.040596,-30.4075,1.043737,-150.9744,1.053698,89.7903,2.5335,-58.2936,2.5331,-178.3005,2.533,61.7105
287274,LL,20,1.043456,-30.3638,1.0457,-150.636,1.050186,89.7662,2.5324,-58.1764,2.532,-178.1817,2.532,61.8288
287274,LL,30,1.044613,-30.3481,1.046411,-150.524,1.049189,89.7513,2.5317,-58.1396,2.5313,-178.1445,2.5313,61.8659
287274,LL,40,1.045203,-30.3396,1.04675,-150.4673,1.048687,89.7431,2.5313,-58.121,2.5309,-178.1256,2.5309,61.8847
287274,3LG,0,0.900631,-31.4847,0.900606,-151.4867,0.900632,88.515,2.9422,-59.1256,2.9416,-179.1303,2.9417,60.8834
287274,3LG,10,1.044381,-30.647,1.045074,-150.6354,1.044608,89.3773,2.5366,-58.399,2.5362,-178.4028,2.5362,61.6074
287274,3LG,20,1.045741,-30.4822,1.04643,-150.468,1.045934,89.5434,2.5333,-58.2348,2.5329,-178.2385,2.533,61.7717
287274,3LG,30,1.046176,-30.426,1.046862,-150.4108,1.046356,89.6001,2.5323,-58.1786,2.5319,-178.1824,2.532,61.8278
287274,3LG,40,1.046389,-30.3976,1.047075,-150.382,1.046563,89.6286,2.5318,-58.1503,2.5314,-178.154,2.5315,61.8561
283954,SLG,0,0.92377,-27.8975,1.034153,-154.0946,1.115027,90.7302,2.5887,-58.2307,2.5888,-178.2064,2.5897,61.7807
283954,SLG,10,1.038272,-30.7249,1.05202,-150.5309,1.04879,90.0385,2.5327,-58.1704,2.5322,-178.1769,2.5322,61.8367
283954,SLG,20,1.042686,-30.5315,1.050001,-150.4106,1.047873,89.8827,2.5314,-58.1195,2.531,-178.1246,2.531,61.8873
283954,SLG,30,1.044142,-30.4611,1.049263,-150.3714,1.047613,89.8281,2.5311,-58.1016,2.5306,-178.1062,2.5306,61.905
283954,SLG,40,1.044866,-30.4248,1.048883,-150.3519,1.047493,89.8004,2.5309,-58.0925,2.5304,-178.0968,2.5305,61.9141
283954,LL,0,0.95523,-29.9778,0.891032,-150.0058,1.084434,87.8869,2.7226,-58.3306,2.714,-178.7368,2.7016,61.6229
283954,LL,10,1.040659,-30.3985,1.043504,-150.9685,1.053707,89.7827,2.5336,-58.2911,2.5332,-178.298,2.5331,61.713
283954,LL,20,1.043466,-30.3609,1.04563,-150.6344,1.050193,89.764,2.5324,-58.1756,2.532,-178.1809,2.532,61.8296
283954,LL,30,1.044614,-30.3465,1.046374,-150.5233,1.049195,89.7502,2.5317,-58.1392,2.5313,-178.1441,2.5313,61.8663
283954,LL,40,1.045202,-30.3386,1.046726,-150.4669,1.048692,89.7424,2.5313,-58.1208,2.5309,-178.1253,2.531,61.885
283954,3LG,0,0.923447,-31.1401,0.923412,-151.1427,0.923453,88.8591,2.869,-58.7908,2.8683,-178.7954,2.8685,61.2176
283954,3LG,10,1.044311,-30.6433,1.045009,-150.6329,1.044555,89.3806,2.5367,-58.3958,2.5363,-178.3995,2.5364,61.6106
283954,3LG,20,1.045714,-30.481,1.046406,-150.4674,1.045916,89.5445,2.5334,-58.2337,2.533,-178.2375,2.533,61.7727
283954,3LG,30,1.04616,-30.4253,1.046849,-150.4105,1.046346,89.6007,2.5323,-58.1781,2.5319,-178.1818,2.532,61.8283
283954,3LG,40,1.046378,-30.3971,1.047065,-150.3818,1.046557,89.629,2.5318,-58.1499,2.5314,-178.1537,2.5315,61.8565
283956,SLG,0,0.936457,-29.1149,1.043479,-153.6238,1.103326,90.9785,2.5797,-58.3518,2.5795,-178.3498,2.5796,61.6537
283956,SLG,10,1.038397,-30.7158,1.051928,-150.5276,1.048783,90.0325,2.5327,-58.1683,2.5321,-178.1748,2.5322,61.8388
283956,SLG,20,1.042716,-30.529,1.049975,-150.4099,1.047873,89.8811,2.5314,-58.1189,2.531,-178.124,2.531,61.8878
283956,SLG,30,1.044155,-30.46,1.049251,-150.371,1.047614,89.8274,2.5311,-58.1013,2.5306,-178.1059,2.5306,61.9053
283956,SLG,40,1.044873,-30.4242,1.048876,-150.3517,1.047493,89.8,2.5309,-58.0923,2.5304,-178.0967,2.5305,61.9143
283956,LL,0,0.971726,-30.5946,0.913495,-151.3333,1.082904,88.3183,2.6858,-58.8483,2.6772,-179.1212,2.6704,61.1751
283956,LL,10,1.040819,-30.3982,1.043516,-150.9547,1.053578,89.7796,2.5336,-58.2875,2.5332,-178.2944,2.5331,61.7167
283956,LL,20,1.04351,-30.3605,1.045626,-150.6308,1.05016,89.763,2.5324,-58.1746,2.532,-178.18,2.532,61.8306
283956,LL,30,1.044634,-30.3464,1.046371,-150.5217,1.04918,89.7497,2.5317,-58.1388,2.5313,-178.1436,2.5313,61.8668
283956,LL,40,1.045213,-30.3385,1.046724,-150.466,1.048684,89.7421,2.5313,-58.1205,2.5309,-178.1251,2.531,61.8852
283956,3LG,0,0.94623,-31.9686,0.946223,-151.9735,0.946266,88.0302,2.7995,-59.6339,2.7989,-179.6382,2.799,60.3741
283956,3LG,10,1.044327,-30.6386,1.045024,-150.6281,1.044568,89.3853,2.5367,-58.3911,2.5363,-178.3948,2.5363,61.6153
283956,3LG,20,1.045717,-30.4798,1.046409,-150.4661,1.045918,89.5457,2.5334,-58.2325,2.533,-178.2362,2.533,61.7739
283956,3LG,30,1.046161,-30.4247,1.04685,-150.41,1.046347,89.6012,2.5323,-58.1775,2.5319,-178.1813,2.532,61.8289
283956,3LG,40,1.046379,-30.3968,1.047066,-150.3815,1.046557,89.6294,2.5318,-58.1496,2.5314,-178.1534,2.5315,61.8568
189963,SLG,0,0.961111,-29.2617,1.042886,-152.9142,1.092004,90.6572,2.5686,-58.2725,2.5681,-178.2702,2.5684,61.7396
189963,SLG,10,1.038584,-30.6997,1.052209,-150.549,1.049554,90.0185,2.5317,-58.1754,2.5312,-178.1817,2.5312,61.8318
189963,SLG,20,1.042661,-30.5211,1.049901,-150.4114,1.047931,89.8781,2.5315,-58.1179,2.531,-178.1229,2.5311,61.8889
189963,SLG,30,1.044119,-30.4557,1.049211,-150.372,1.047646,89.8258,2.5311,-58.1008,2.5306,-178.1053,2.5307,61.9059
189963,SLG,40,1.044847,-30.4213,1.04885,-150.3524,1.047515,89.7989,2.5309,-58.0919,2.5304,-178.0963,2.5305,61.9146
189963,LL,0,0.993739,-30.4781,0.942181,-151.1609,1.074562,88.5153,2.6448,-58.7261,2.6394,-178.8863,2.6357,61.2971
189963,LL,10,1.040926,-30.3791,1.043075,-150.9382,1.053557,89.7634,2.5338,-58.2809,2.5334,-178.2878,2.5334,61.7234
189963,LL,20,1.043961,-30.3605,1.045899,-150.6397,1.050737,89.7481,2.5314,-58.1832,2.531,-178.1885,2.531,61.8221
189963,LL,30,1.044636,-30.343,1.046294,-150.5193,1.049182,89.747,2.5318,-58.1377,2.5313,-178.1426,2.5314,61.8678
189963,LL,40,1.04521,-30.3362,1.046671,-150.4645,1.048687,89.7403,2.5314,-58.1199,2.531,-178.1244,2.531,61.8859
189963,3LG,0,0.971372,-31.6846,0.97133,-151.6892,0.971432,88.3133,2.727,-59.3696,2.7264,-179.3739,2.7265,60.6378
189963,3LG,10,1.044609,-30.6397,1.045331,-150.6319,1.044893,89.3842,2.536,-58.3935,2.5355,-178.3972,2.5356,61.613
189963,3LG,20,1.045651,-30.4764,1.046356,-150.464,1.045873,89.549,2.5335,-58.2295,2.5331,-178.2332,2.5332,61.7769
189963,3LG,30,1.046119,-30.4229,1.046817,-150.4089,1.046319,89.6031,2.5324,-58.1759,2.532,-178.1796,2.5321,61.8305
189963,3LG,40,1.046348,-30.3955,1.047042,-150.3809,1.046537,89.6306,2.5319,-58.1486,2.5315,-178.1523,2.5315,61.8579
181977,SLG,0,0.973678,-29.4902,1.04408,-152.5312,1.08524,90.5491,2.5626,-58.2541,2.562,-178.2538,2.5623,61.759
181977,SLG,10,1.038587,-30.6857,1.052076,-150.5496,1.049627,90.0125,2.5317,-58.173,2.5312,-178.1792,2.5312,61.8342
181977,SLG,20,1.042653,-30.5171,1.049862,-150.4118,1.047955,89.8764,2.5315,-58.1172,2.531,-178.1222,2.5311,61.8896
181977,SLG,30,1.044112,-30.4538,1.049193,-150.3723,1.047659,89.8251,2.5311,-58.1004,2.5306,-178.105,2.5307,61.9062
181977,SLG,40,1.044841,-30.4202,1.048839,-150.3526,1.047523,89.7985,2.5309,-58.0917,2.5304,-178.0961,2.5305,61.9148
181977,LL,0,1.003542,-30.5015,0.957971,-151.1686,1.070677,88.6858,2.6247,-58.6942,2.6205,-178.8104,2.618,61.328
181977,LL,10,1.041083,-30.3714,1.042911,-150.9251,1.053478,89.7554,2.5339,-58.2767,2.5335,-178.2835,2.5335,61.7276
181977,LL,20,1.043996,-30.3576,1.045837,-150.6367,1.050727,89.7456,2.5314,-58.182,2.531,-178.1874,2.531,61.8232
181977,LL,30,1.044651,-30.3415,1.046264,-150.5178,1.049178,89.7458,2.5318,-58.1372,2.5314,-178.142,2.5314,61.8684
181977,LL,40,1.045218,-30.3353,1.046652,-150.4637,1.048685,89.7396,2.5314,-58.1195,2.531,-178.1241,2.531,61.8863
181977,3LG,0,0.984085,-31.5892,0.98407,-151.5947,0.984183,88.4092,2.6917,-59.286,2.6912,-179.2902,2.6913,60.7213
181977,3LG,10,1.044576,-30.634,1.045295,-150.6265,1.044862,89.3896,2.536,-58.388,2.5356,-178.3917,2.5357,61.6185
181977,3LG,20,1.045637,-30.4747,1.046342,-150.4625,1.045861,89.5506,2.5336,-58.2279,2.5331,-178.2316,2.5332,61.7785
181977,3LG,30,1.04611,-30.422,1.046808,-150.4083,1.046312,89.6039,2.5324,-58.1751,2.532,-178.1789,2.5321,61.8313
181977,3LG,40,1.046342,-30.395,1.047036,-150.3805,1.046532,89.6311,2.5319,-58.1481,2.5315,-178.1518,2.5315,61.8583
181924,SLG,0,0.977703,-29.2207,1.041357,-152.4344,1.084908,90.3785,2.5618,-58.196,2.5611,-178.1916,2.5616,61.8196
181924,SLG,10,1.038424,-30.6803,1.05203,-150.5548,1.049729,90.0131,2.5318,-58.1727,2.5313,-178.1788,2.5313,61.8346
181924,SLG,20,1.042598,-30.5156,1.04985,-150.4135,1.047986,89.8768,2.5315,-58.1171,2.5311,-178.1221,2.5311,61.8897
181924,SLG,30,1.044081,-30.4531,1.04919,-150.3732,1.047675,89.8254,2.5311,-58.1004,2.5307,-178.1049,2.5307,61.9063
181924,SLG,40,1.04482,-30.4197,1.048837,-150.3532,1.047533,89.7988,2.5309,-58.0917,2.5305,-178.0961,2.5305,61.9149
181924,LL,0,1.001797,-30.3659,0.959737,-150.6317,1.06846,88.6675,2.6266,-58.4783,2.6227,-178.603,2.6197,61.5326
181924,LL,10,1.041089,-30.366,1.042679,-150.9248,1.053516,89.7498,2.5341,-58.2765,2.5337,-178.2834,2.5336,61.7278
181924,LL,20,1.043985,-30.3553,1.045759,-150.6373,1.050751,89.744,2.5315,-58.1819,2.5311,-178.1873,2.5311,61.8233
181924,LL,30,1.044643,-30.3403,1.046225,-150.5181,1.04919,89.7451,2.5318,-58.1371,2.5314,-178.1419,2.5314,61.8685
181924,LL,40,1.045211,-30.3345,1.046627,-150.4639,1.048694,89.7392,2.5314,-58.1195,2.531,-178.124,2.531,61.8863
181924,3LG,0,0.982123,-31.2009,0.982106,-151.2056,0.982213,88.7982,2.6971,-58.8953,2.6966,-178.8995,2.6967,61.112
181924,3LG,10,1.04449,-30.6346,1.045209,-150.6272,1.044777,89.3889,2.5362,-58.3885,2.5358,-178.3923,2.5359,61.6179
181924,3LG,20,1.045609,-30.4748,1.046314,-150.4626,1.045833,89.5505,2.5336,-58.228,2.5332,-178.2317,2.5333,61.7785
181924,3LG,30,1.046094,-30.422,1.046793,-150.4083,1.046297,89.6039,2.5325,-58.1751,2.5321,-178.1788,2.5321,61.8313
181924,3LG,40,1.046331,-30.395,1.047026,-150.3805,1.046522,89.6311,2.5319,-58.1481,2.5315,-178.1518,2.5316,61.8584
181993,SLG,0,0.98325,-29.2343,1.041096,-152.2708,1.082387,90.2944,2.5594,-58.1745,2.5587,-178.17,2.5592,61.8417
181993,SLG,10,1.038371,-30.6726,1.051959,-150.5568,1.049795,90.0108,2.5319,-58.1716,2.5313,-178.1777,2.5314,61.8357
181993,SLG,20,1.042572,-30.5136,1.049834,-150.4144,1.048008,89.8765,2.5316,-58.1169,2.5311,-178.1218,2.5311,61.89
181993,SLG,30,1.044065,-30.4522,1.049184,-150.3737,1.047686,89.8254,2.5311,-58.1003,2.5307,-178.1048,2.5307,61.9064
181993,SLG,40,1.044809,-30.4192,1.048835,-150.3535,1.04754,89.7988,2.5309,-58.0916,2.5305,-178.096,2.5305,61.915
181993,LL,0,1.004646,-30.3274,0.966009,-150.4905,1.066535,88.7261,2.6199,-58.4044,2.6166,-178.5164,2.6138,61.6039
181993,LL,10,1.041169,-30.3614,1.04253,-150.9188,1.053488,89.7444,2.5341,-58.2748,2.5337,-178.2817,2.5337,61.7295
181993,LL,20,1.044001,-30.3536,1.045708,-150.6362,1.050753,89.7424,2.5315,-58.1815,2.5311,-178.1869,2.5311,61.8237
181993,LL,30,1.044648,-30.3394,1.046199,-150.5178,1.049194,89.7443,2.5318,-58.1369,2.5314,-178.1417,2.5314,61.8687
181993,LL,40,1.045213,-30.3339,1.046611,-150.4638,1.048697,89.7387,2.5314,-58.1194,2.531,-178.1239,2.531,61.8864
181993,3LG,0,0.986163,-31.0527,0.986164,-151.0567,0.986261,88.9474,2.6861,-58.7504,2.6856,-178.7546,2.6856,61.2568
181993,3LG,10,1.044449,-30.633,1.045167,-150.6253,1.044732,89.3906,2.5364,-58.3867,2.5359,-178.3904,2.536,61.6197
181993,3LG,20,1.045595,-30.4744,1.046299,-150.4622,1.045818,89.5509,2.5337,-58.2275,2.5332,-178.2313,2.5333,61.7789
181993,3LG,30,1.046087,-30.4219,1.046785,-150.4081,1.046289,89.604,2.5325,-58.1749,2.5321,-178.1787,2.5321,61.8315
181993,3LG,40,1.046326,-30.3949,1.047021,-150.3803,1.046517,89.6312,2.5319,-58.148,2.5315,-178.1517,2.5316,61.8585
181994,SLG,0,0.988631,-29.2914,1.041244,-152.1069,1.079677,90.2286,2.557,-58.1602,2.5563,-178.1562,2.5568,61.8561
181994,SLG,10,1.038359,-30.6639,1.051873,-150.5575,1.049849,90.007,2.5319,-58.1702,2.5314,-178.1763,2.5314,61.8371
181994,SLG,20,1.042562,-30.5113,1.04981,-150.4147,1.048025,89.8756,2.5316,-58.1165,2.5311,-178.1214,2.5311,61.8903
181994,SLG,30,1.044059,-30.4511,1.049174,-150.3738,1.047694,89.825,2.5311,-58.1001,2.5307,-178.1047,2.5307,61.9066
181994,SLG,40,1.044806,-30.4186,1.048829,-150.3537,1.047545,89.7986,2.5309,-58.0916,2.5305,-178.0959,2.5305,61.915
181994,LL,0,1.008115,-30.295,0.972699,-150.4267,1.064818,88.7919,2.6123,-58.3562,2.6093,-178.4533,2.607,61.6512
181994,LL,10,1.04127,-30.3575,1.042407,-150.9103,1.053433,89.739,2.5342,-58.2724,2.5338,-178.2793,2.5337,61.7319
181994,LL,20,1.044028,-30.3521,1.045666,-150.6341,1.050743,89.7407,2.5315,-58.1809,2.5311,-178.1863,2.5311,61.8243
181994,LL,30,1.044659,-30.3387,1.046179,-150.5169,1.04919,89.7435,2.5318,-58.1366,2.5314,-178.1415,2.5314,61.869
181994,LL,40,1.045219,-30.3335,1.046599,-150.4632,1.048695,89.7383,2.5314,-58.1192,2.531,-178.1237,2.531,61.8866
181994,3LG,0,0.991069,-30.949,0.991096,-150.9522,0.991178,89.0524,2.6728,-58.6508,2.6723,-178.655,2.6723,61.3563
181994,3LG,10,1.044417,-30.6304,1.045133,-150.6224,1.044695,89.3933,2.5364,-58.3839,2.536,-178.3877,2.5361,61.6225
181994,3LG,20,1.045585,-30.4738,1.046289,-150.4614,1.045806,89.5516,2.5337,-58.2268,2.5333,-178.2305,2.5333,61.7796
181994,3LG,30,1.046082,-30.4216,1.04678,-150.4077,1.046283,89.6044,2.5325,-58.1746,2.5321,-178.1783,2.5322,61.8318
181994,3LG,40,1.046323,-30.3948,1.047018,-150.3801,1.046513,89.6314,2.5319,-58.1478,2.5315,-178.1515,2.5316,61.8587
181891,SLG,0,0.99477,-29.5128,1.042868,-151.908,1.075719,90.2161,2.5538,-58.1687,2.5531,-178.1671,2.5535,61.8466
181891,SLG,10,1.038465,-30.6503,1.05173,-150.5549,1.049877,89.9988,2.5319,-58.1676,2.5314,-178.1736,2.5314,61.8397
181891,SLG,20,1.042585,-30.5071,1.049764,-150.4142,1.048039,89.8731,2.5316,-58.1158,2.5311,-178.1207,2.5311,61.8911
181891,SLG,30,1.04407,-30.4491,1.049151,-150.3736,1.047701,89.8237,2.5311,-58.0998,2.5307,-178.1043,2.5307,61.9069
181891,SLG,40,1.044812,-30.4174,1.048816,-150.3535,1.047549,89.7978,2.5309,-58.0913,2.5305,-178.0957,2.5305,61.9153
181891,LL,0,1.014119,-30.3687,0.981337,-150.5989,1.063198,88.9055,2.6007,-58.407,2.5982,-178.4833,2.5964,61.6037
181891,LL,10,1.041462,-30.3535,1.042348,-150.8939,1.053299,89.7326,2.5342,-58.2678,2.5338,-178.2747,2.5337,61.7366
181891,LL,20,1.044085,-30.3504,1.045635,-150.6294,1.050707,89.7384,2.5315,-58.1795,2.5311,-178.1849,2.5311,61.8257
181891,LL,30,1.044686,-30.3378,1.046162,-150.5146,1.049174,89.7423,2.5318,-58.136,2.5314,-178.1408,2.5314,61.8696
181891,LL,40,1.045235,-30.333,1.046589,-150.4619,1.048685,89.7375,2.5314,-58.1188,2.531,-178.1233,2.5311,61.887
181891,3LG,0,0.998852,-31.0241,0.998937,-151.0268,0.998987,88.9791,2.6519,-58.7332,2.6515,-178.7373,2.6515,61.2738
181891,3LG,10,1.044426,-30.6243,1.045134,-150.6158,1.044694,89.3992,2.5364,-58.3778,2.536,-178.3815,2.5361,61.6287
181891,3LG,20,1.045586,-30.472,1.046286,-150.4595,1.045804,89.5532,2.5337,-58.2251,2.5333,-178.2288,2.5333,61.7814
181891,3LG,30,1.046083,-30.4207,1.046778,-150.4068,1.046281,89.6051,2.5325,-58.1737,2.5321,-178.1775,2.5322,61.8327
181891,3LG,40,1.046324,-30.3942,1.047017,-150.3796,1.046512,89.6318,2.5319,-58.1473,2.5315,-178.151,2.5316,61.8592
255335,SLG,0,0.996592,-29.4943,1.042607,-151.8569,1.075022,90.1805,2.5531,-58.1579,2.5524,-178.1561,2.5528,61.8575
255335,SLG,10,1.038421,-30.6472,1.051706,-150.5564,1.049913,89.9985,2.5319,-58.1672,2.5314,-178.1731,2.5314,61.8402
255335,SLG,20,1.042932,-30.5155,1.050283,-150.4293,1.048613,89.8677,2.5304,-58.126,2.53,-178.1309,2.53,61.8808
255335,SLG,30,1.044059,-30.4489,1.049151,-150.374,1.047707,89.824,2.5311,-58.0997,2.5307,-178.1043,2.5307,61.9069
255335,SLG,40,1.044805,-30.4173,1.048816,-150.3537,1.047553,89.798,2.5309,-58.0913,2.5305,-178.0957,2.5305,61.9153
255335,LL,0,1.014775,-30.3062,0.983683,-150.5179,1.062641,88.9192,2.5985,-58.3568,2.5961,-178.4293,2.5945,61.6523
255335,LL,10,1.041478,-30.3517,1.042271,-150.8914,1.053293,89.7305,2.5343,-58.2671,2.5339,-178.2739,2.5338,61.7373
255335,LL,20,1.044085,-30.3496,1.045608,-150.6292,1.050711,89.7377,2.5315,-58.1794,2.5311,-178.1848,2.5311,61.8258
255335,LL,30,1.044684,-30.3374,1.046149,-150.5147,1.049177,89.7421,2.5318,-58.1359,2.5314,-178.1408,2.5314,61.8696
255335,LL,40,1.045233,-30.3327,1.046581,-150.462,1.048688,89.7374,2.5314,-58.1188,2.531,-178.1233,2.5311,61.887
255335,3LG,0,1.000254,-30.9244,1.000351,-150.9266,1.000397,89.0794,2.6482,-58.6347,2.6477,-178.6388,2.6478,61.3723
255335,3LG,10,1.044386,-30.6237,1.045101,-150.6151,1.044656,89.4003,2.5365,-58.3769,2.5361,-178.3806,2.5362,61.6295
255335,3LG,20,1.045573,-30.472,1.046276,-150.4595,1.045791,89.5535,2.5337,-58.2249,2.5333,-178.2287,2.5334,61.7815
255335,3LG,30,1.046075,-30.4208,1.046774,-150.4068,1.046275,89.6052,2.5325,-58.1737,2.5321,-178.1775,2.5322,61.8327
255335,3LG,40,1.046319,-30.3943,1.047014,-150.3796,1.046508,89.6319,2.532,-58.1472,2.5315,-178.151,2.5316,61.8592
182030,SLG,0,0.998251,-29.5673,1.043187,-151.803,1.073883,90.1833,2.5522,-58.1624,2.5514,-178.1612,2.5519,61.8527
182030,SLG,10,1.038462,-30.6431,1.051664,-150.5554,1.049917,89.996,2.5319,-58.1663,2.5314,-178.1722,2.5314,61.8411
182030,SLG,20,1.04294,-30.5142,1.050271,-150.4291,1.048616,89.867,2.5304,-58.1258,2.53,-178.1307,2.53,61.8811
182030,SLG,30,1.044062,-30.4483,1.049146,-150.3739,1.047709,89.8237,2.5311,-58.0996,2.5307,-178.1042,2.5307,61.9071
182030,SLG,40,1.044806,-30.417,1.048812,-150.3537,1.047554,89.7978,2.5309,-58.0913,2.5305,-178.0956,2.5305,61.9153
182030,LL,0,1.0165,-30.3106,0.986392,-150.5809,1.062323,88.9533,2.5949,-58.37,2.5926,-178.4364,2.5912,61.6397
182030,LL,10,1.041529,-30.3508,1.042267,-150.8859,1.053249,89.7291,2.5342,-58.2654,2.5338,-178.2723,2.5338,61.739
182030,LL,20,1.044101,-30.3492,1.045602,-150.6277,1.050699,89.7372,2.5315,-58.1789,2.5311,-178.1843,2.5311,61.8263
182030,LL,30,1.044691,-30.3371,1.046145,-150.514,1.049173,89.7418,2.5318,-58.1357,2.5314,-178.1406,2.5314,61.8699
182030,LL,40,1.045237,-30.3326,1.046578,-150.4616,1.048685,89.7373,2.5314,-58.1187,2.531,-178.1232,2.5311,61.8871
182030,3LG,0,1.002755,-30.9406,1.002873,-150.9428,1.00291,89.0638,2.6416,-58.6534,2.6411,-178.6574,2.6412,61.3536
182030,3LG,10,1.044386,-30.6214,1.045101,-150.6128,1.044655,89.4026,2.5365,-58.3746,2.5361,-178.3783,2.5362,61.6319
182030,3LG,20,1.045571,-30.4714,1.046275,-150.4588,1.04579,89.5541,2.5337,-58.2243,2.5333,-178.228,2.5334,61.7821
182030,3LG,30,1.046075,-30.4205,1.046773,-150.4065,1.046274,89.6055,2.5325,-58.1734,2.5321,-178.1772,2.5322,61.833
182030,3LG,40,1.046319,-30.3941,1.047013,-150.3794,1.046507,89.6321,2.532,-58.1471,2.5315,-178.1508,2.5316,61.8593
182153,SLG,0,1.007497,-29.9016,1.045796,-151.5087,1.06793,90.1716,2.5473,-58.1764,2.5465,-178.1784,2.5468,61.8369
182153,SLG,10,1.038755,-30.6164,1.051391,-150.5479,1.049932,89.9793,2.5319,-58.1607,2.5314,-178.1664,2.5314,61.8467
182153,SLG,20,1.042631,-30.4967,1.049663,-150.4134,1.048074,89.8679,2.5316,-58.1138,2.5311,-178.1187,2.5312,61.8931
182153,SLG,30,1.044085,-30.4442,1.049103,-150.3734,1.047721,89.8214,2.5311,-58.0989,2.5307,-178.1034,2.5307,61.9078
182153,SLG,40,1.044818,-30.4146,1.048788,-150.3534,1.047561,89.7965,2.5309,-58.0908,2.5305,-178.0952,2.5305,61.9158
182153,LL,0,1.025328,-30.4044,0.999684,-150.8289,1.06002,89.1298,2.5777,-58.4348,2.576,-178.4772,2.5752,61.5759
182153,LL,10,1.04194,-30.3435,1.04225,-150.8505,1.052947,89.7183,2.5342,-58.2549,2.5338,-178.2617,2.5337,61.7496
182153,LL,20,1.044225,-30.3456,1.045556,-150.6175,1.05062,89.7328,2.5315,-58.1758,2.5311,-178.1812,2.5311,61.8294
182153,LL,30,1.044748,-30.3351,1.046116,-150.5095,1.049139,89.7396,2.5318,-58.1343,2.5314,-178.1391,2.5315,61.8713
182153,LL,40,1.04527,-30.3313,1.04656,-150.459,1.048666,89.7359,2.5314,-58.1178,2.531,-178.1224,2.5311,61.888
182153,3LG,0,1.014534,-31.0352,1.014797,-151.0364,1.01475,88.9734,2.611,-58.7595,2.6105,-178.7634,2.6106,61.2473
182153,3LG,10,1.044436,-30.607,1.045151,-150.5977,1.044697,89.4174,2.5364,-58.3599,2.536,-178.3636,2.536,61.6465
182153,3LG,20,1.045575,-30.4673,1.046279,-150.4546,1.045791,89.5583,2.5337,-58.2201,2.5333,-178.2239,2.5334,61.7863
182153,3LG,30,1.046074,-30.4186,1.046773,-150.4045,1.046273,89.6075,2.5325,-58.1715,2.5321,-178.1752,2.5322,61.8349
182153,3LG,40,1.046318,-30.393,1.047013,-150.3783,1.046506,89.6333,2.532,-58.1459,2.5315,-178.1497,2.5316,61.8605
182158,SLG,0,1.01059,-29.9603,1.046185,-151.4136,1.066219,90.1458,2.5458,-58.1728,2.5451,-178.1752,2.5454,61.8401
182158,SLG,10,1.038844,-30.6056,1.051283,-150.5458,1.049951,89.973,2.5319,-58.1585,2.5313,-178.1642,2.5314,61.8489
182158,SLG,20,1.042646,-30.4933,1.049629,-150.4131,1.048087,89.8661,2.5316,-58.1132,2.5311,-178.118,2.5312,61.8937
182158,SLG,30,1.04409,-30.4425,1.049086,-150.3733,1.047728,89.8206,2.5311,-58.0986,2.5307,-178.1031,2.5307,61.9081
182158,SLG,40,1.044821,-30.4136,1.048778,-150.3534,1.047566,89.796,2.5309,-58.0907,2.5305,-178.095,2.5305,61.916
182158,LL,0,1.027396,-30.4045,1.003727,-150.8247,1.059132,89.179,2.5732,-58.42,2.5717,-178.4572,2.571,61.5901
182158,LL,10,1.042094,-30.3407,1.042211,-150.8368,1.052834,89.7137,2.5342,-58.251,2.5338,-178.2578,2.5337,61.7535
182158,LL,20,1.044273,-30.3441,1.045526,-150.6137,1.050591,89.7309,2.5315,-58.1747,2.5311,-178.18,2.5311,61.8306
182158,LL,30,1.044769,-30.3343,1.046099,-150.5077,1.049127,89.7386,2.5318,-58.1338,2.5314,-178.1386,2.5315,61.8719
182158,LL,40,1.045282,-30.3308,1.046549,-150.458,1.048659,89.7353,2.5314,-58.1175,2.531,-178.1221,2.5311,61.8883
182158,3LG,0,1.017549,-31.0014,1.017869,-151.0014,1.017779,89.0093,2.6032,-58.7281,2.6027,-178.732,2.6028,61.2787
182158,3LG,10,1.044439,-30.6019,1.045151,-150.5924,1.044696,89.4225,2.5364,-58.3547,2.536,-178.3584,2.536,61.6517
182158,3LG,20,1.045573,-30.4659,1.046275,-150.453,1.045787,89.5598,2.5337,-58.2187,2.5333,-178.2224,2.5334,61.7878
182158,3LG,30,1.046072,-30.4179,1.046771,-150.4038,1.04627,89.6082,2.5325,-58.1708,2.5321,-178.1745,2.5322,61.8356
182158,3LG,40,1.046316,-30.3926,1.047011,-150.3779,1.046504,89.6336,2.532,-58.1455,2.5315,-178.1493,2.5316,61.8609
182162,SLG,0,1.013202,-30.002,1.046445,-151.3338,1.06482,90.1209,2.5446,-58.1685,2.5439,-178.1711,2.5441,61.8441
182162,SLG,10,1.038925,-30.5955,1.051181,-150.5438,1.049971,89.9672,2.5319,-58.1565,2.5313,-178.1621,2.5314,61.8509
182162,SLG,20,1.04303,-30.4988,1.050114,-150.4271,1.048661,89.8586,2.5304,-58.1229,2.53,-178.1277,2.53,61.884
182162,SLG,30,1.044093,-30.4409,1.04907,-150.3733,1.047735,89.8198,2.5311,-58.0983,2.5307,-178.1028,2.5307,61.9084
182162,SLG,40,1.044822,-30.4126,1.048769,-150.3534,1.04757,89.7956,2.5309,-58.0905,2.5305,-178.0948,2.5305,61.9161
182162,LL,0,1.029023,-30.4027,1.00705,-150.8093,1.058355,89.2192,2.5696,-58.4032,2.5683,-178.4367,2.5677,61.6062
182162,LL,10,1.042239,-30.3383,1.042173,-150.8241,1.052728,89.7094,2.5342,-58.2474,2.5338,-178.2542,2.5337,61.7571
182162,LL,20,1.04432,-30.3427,1.045497,-150.61,1.050564,89.729,2.5315,-58.1736,2.5311,-178.1789,2.5311,61.8317
182162,LL,30,1.044791,-30.3335,1.046082,-150.5061,1.049116,89.7376,2.5319,-58.1333,2.5314,-178.1381,2.5315,61.8724
182162,LL,40,1.045295,-30.3303,1.046538,-150.4571,1.048653,89.7347,2.5315,-58.1172,2.531,-178.1218,2.5311,61.8886
182162,3LG,0,1.019934,-30.9659,1.020304,-150.9647,1.020174,89.0467,2.5971,-58.6944,2.5966,-178.6983,2.5967,61.3124
182162,3LG,10,1.04444,-30.5972,1.04515,-150.5875,1.044693,89.4272,2.5364,-58.3499,2.536,-178.3537,2.536,61.6565
182162,3LG,20,1.045569,-30.4645,1.046271,-150.4516,1.045783,89.5611,2.5337,-58.2173,2.5333,-178.221,2.5334,61.7891
182162,3LG,30,1.04607,-30.4173,1.046768,-150.4031,1.046267,89.6088,2.5325,-58.1701,2.5321,-178.1739,2.5322,61.8363
182162,3LG,40,1.046315,-30.3923,1.04701,-150.3775,1.046503,89.634,2.532,-58.1452,2.5315,-178.1489,2.5316,61.8612
